@<TRIPOS>MOLECULE
API3
28    30    1     0     0
SMALL
USER_CHARGES
@<TRIPOS>ATOM
1      O1      0.0021   -0.0041    0.0020 O.2      1 ZINC000003871576   -0.5100
2      C2     -0.0145    1.2162    0.0087 C.2      1 ZINC000003871576    0.4100
3      C3     -1.2333    1.9348    0.0302 C.2      1 ZINC000003871576   -0.2900
4      C4     -1.2100    3.2948    0.0375 C.2      1 ZINC000003871576    0.1500
5      C5     -2.4908    4.0260    0.0599 C.ar     1 ZINC000003871576   -0.0300
6      C6     -3.6989    3.3232    0.0792 C.ar     1 ZINC000003871576   -0.0800
7      C7     -4.8925    4.0100    0.1006 C.ar     1 ZINC000003871576   -0.1500
8      C8     -4.8970    5.3997    0.1026 C.ar     1 ZINC000003871576    0.0900
9      O9     -6.0758    6.0727    0.1233 O.3      1 ZINC000003871576   -0.5000
10     C10    -3.6982    6.1025    0.0840 C.ar     1 ZINC000003871576   -0.1500
11     C11    -2.4999    5.4237    0.0679 C.ar     1 ZINC000003871576   -0.0800
12     O12    -0.0658    3.9970    0.0254 O.3      1 ZINC000003871576   -0.2400
13     C13     1.1455    3.4014    0.0049 C.ar     1 ZINC000003871576    0.1800
14     C14     2.3074    4.1567   -0.0064 C.ar     1 ZINC000003871576   -0.3500
15     C15     3.5433    3.5285   -0.0272 C.ar     1 ZINC000003871576    0.3300
16     O16     4.6768    4.2755   -0.0382 O.3      1 ZINC000003871576   -0.7700
17     C17     3.6330    2.1411   -0.0363 C.ar     1 ZINC000003871576   -0.4400
18     C18     2.4847    1.3706   -0.0257 C.ar     1 ZINC000003871576    0.3400
19     O19     2.5700    0.0162   -0.0350 O.3      1 ZINC000003871576   -0.7200
20     C20     1.2334    1.9984    0.0010 C.ar     1 ZINC000003871576   -0.4100
21     H21    -2.1755    1.4071    0.0404 H        1 ZINC000003871576    0.1300
22     H22    -3.6963    2.2432    0.0769 H        1 ZINC000003871576    0.1400
23     H23    -5.8264    3.4677    0.1154 H        1 ZINC000003871576    0.1300
24     H24    -6.4026    6.2665    1.0126 H        1 ZINC000003871576    0.3900
25     H25    -3.7061    7.1825    0.0860 H        1 ZINC000003871576    0.1300
26     H26    -1.5687    5.9707    0.0538 H        1 ZINC000003871576    0.1400
27     H27     2.2501    5.2351    0.0005 H        1 ZINC000003871576    0.0900
28     H28     4.6018    1.6640   -0.0521 H        1 ZINC000003871576    0.0800
@<TRIPOS>BOND
1     1     2     2
2     2     20    1
3     2     3     1
4     3     4     2
5     3     21    1
6     4     5     1
7     4     12    1
8     5     11    ar
9     5     6     ar
10    6     7     ar
11    6     22    1
12    7     8     ar
13    7     23    1
14    8     9     1
15    8     10    ar
16    9     24    1
17    10    11    ar
18    10    25    1
19    11    26    1
20    12    13    1
21    13    20    ar
22    13    14    ar
23    14    15    ar
24    14    27    1
25    15    16    1
26    15    17    ar
27    17    18    ar
28    17    28    1
29    18    19    1
30    18    20    ar
@<TRIPOS>SUBSTRUCTURE
1   ZINC000003871576 1     RESIDUE    1   A     ZIN   1
