@<TRIPOS>MOLECULE
tetracycline
56 59 1
SMALL
USER_CHARGES
@<TRIPOS>ATOM
1	C1     4.2181     4.8768     0.0000	C.3	1	noname	-0.0129
2	N1     2.8845     4.1068     0.0000	N.3	1	noname	-0.2993
3	C2     1.5508     4.8768     0.0000	C.3	1	noname	-0.0129
4	C3     2.8845     2.5668     0.0000	C.3	1	noname	0.0759
5	C4     1.5508     1.7968     0.0000	C.3	1	noname	0.0245
6	C5     0.2171     2.5668     0.0000	C.3	1	noname	-0.0346
7	C6    -1.1166     1.7968     0.0000	C.3	1	noname	0.0234
8	C7    -1.1166     0.2568     0.0000	C.2	1	noname	0.0807
9	C8     0.2171    -0.5132     0.0000	C.2	1	noname	0.0171
10	O1     0.2171    -2.0532     0.0000	O.3	1	noname	-0.2811
11	C9     1.5508     0.2568     0.0000	C.3	1	noname	0.1747
12	O2     1.5508    -1.2832     0.0000	O.3	1	noname	-0.3748
13	C10     2.8845    -0.5132     0.0000	C.2	1	noname	0.1743
14	O3     2.8845    -2.0532     0.0000	O.2	1	noname	-0.2784
15	C11     4.2181     0.2568     0.0000	C.3	1	noname	0.1542
16	C12     5.5518    -0.5132     0.0000	C.2	1	noname	0.1842
17	N2     6.8855     0.2568     0.0000	N.3	1	noname	-0.2573
18	O4     5.5518    -2.0532     0.0000	O.2	1	noname	-0.2631
19	C13     4.2181     1.7968     0.0000	C.2	1	noname	0.1592
20	O5     5.5518     2.5668     0.0000	O.2	1	noname	-0.2861
21	C14    -2.4503    -0.5132     0.0000	C.2	1	noname	0.0944
22	O6    -2.4503    -2.0532     0.0000	O.2	1	noname	-0.2919
23	C15    -3.7839     0.2568     0.0000	C.2	1	noname	0.0210
24	C16    -5.1176    -0.5132     0.0000	C.2	1	noname	0.0388
25	O7    -5.1176    -2.0532     0.0000	O.3	1	noname	-0.2782
26	C17    -6.4513     0.2568     0.0000	C.2	1	noname	-0.0195
27	C18    -6.4513     1.7968     0.0000	C.2	1	noname	-0.0318
28	C19    -5.1176     2.5668     0.0000	C.2	1	noname	-0.0474
29	C20    -3.7839     1.7968     0.0000	C.2	1	noname	0.0072
30	C21    -2.4503     2.5668     0.0000	C.3	1	noname	0.0948
31	C22    -3.1733     3.9266     0.0000	C.3	1	noname	-0.0312
32	O8    -1.7273     3.9266     0.0000	O.3	1	noname	-0.3847
33	H1     4.9881     3.5432     0.0000	H	1	noname	0.0394
34	H2     5.5518     5.6468     0.0000	H	1	noname	0.0394
35	H3     3.4481     6.2105     0.0000	H	1	noname	0.0394
36	H4     2.3208     6.2105     0.0000	H	1	noname	0.0394
37	H5     0.2171     5.6468     0.0000	H	1	noname	0.0394
38	H6     0.7808     3.5432     0.0000	H	1	noname	0.0394
39	H7     1.5508     3.3368     0.0000	H	1	noname	0.0553
40	H8     0.2171     1.0268     0.0000	H	1	noname	0.0362
41	H9    -0.3096     4.0140     0.0000	H	1	noname	0.0279
42	H10    -1.2300     3.0936     0.0000	H	1	noname	0.0279
43	H11    -2.4503     1.0268     0.0000	H	1	noname	0.0387
44	H12    -0.5529    -3.3868     0.0000	H	1	noname	0.2179
45	H13     1.5508    -2.8232     0.0000	H	1	noname	0.2120
46	H14     8.2192    -0.5132     0.0000	H	1	noname	0.1271
47	H15     6.8855     1.7968     0.0000	H	1	noname	0.1271
48	H16    -6.4513    -2.8232     0.0000	H	1	noname	0.2182
49	H17    -7.7850    -0.5132     0.0000	H	1	noname	0.0650
50	H18    -7.7850     2.5668     0.0000	H	1	noname	0.0623
51	H19    -5.1176     4.1068     0.0000	H	1	noname	0.0626
52	H20    -2.7617     5.4106     0.0000	H	1	noname	0.0263
53	H21    -4.4933     4.7197     0.0000	H	1	noname	0.0263
54	H22    -4.2903     2.8665     0.0000	H	1	noname	0.0263
55	H23    -1.0571     5.3131     0.0000	H	1	noname	0.2113
56	H24     4.2181    -1.2832     0.0000	H	1	noname	0.0563
@<TRIPOS>BOND
1	1	2	1
2	2	3	1
3	4	2	1
4	5	4	1
5	5	6	1
6	7	6	1
7	7	8	1
8	8	9	2
9	9	10	1
10	11	9	1
11	5	11	1
12	11	12	1
13	11	13	1
14	13	14	2
15	15	13	1
16	15	16	1
17	16	17	1
18	16	18	2
19	15	19	1
20	4	19	1
21	19	20	2
22	8	21	1
23	21	22	2
24	21	23	1
25	23	24	2
26	24	25	1
27	24	26	1
28	26	27	2
29	27	28	1
30	28	29	2
31	23	29	1
32	30	29	1
33	7	30	1
34	30	31	1
35	30	32	1
36	1	33	1
37	1	34	1
38	1	35	1
39	3	36	1
40	3	37	1
41	3	38	1
42	4	39	1
43	5	40	1
44	6	41	1
45	6	42	1
46	7	43	1
47	10	44	1
48	12	45	1
49	17	46	1
50	17	47	1
51	25	48	1
52	26	49	1
53	27	50	1
54	28	51	1
55	31	52	1
56	31	53	1
57	31	54	1
58	32	55	1
59	15	56	1
@<TRIPOS>SUBSTRUCTURE
1	noname	1
