@<TRIPOS>MOLECULE
tetracycline
56 59 1
SMALL
USER_CHARGES
@<TRIPOS>ATOM
1	C1    10.7873     4.7357     0.0000	C.3	1	noname	-0.0129
2	N1     9.4536     3.9657     0.0000	N.3	1	noname	-0.2993
3	C2     8.1199     4.7357     0.0000	C.3	1	noname	-0.0129
4	C3     9.4536     2.4257     0.0000	C.3	1	noname	0.0759
5	C4     8.1199     1.6557     0.0000	C.3	1	noname	0.0245
6	C5     6.7863     2.4257     0.0000	C.3	1	noname	-0.0346
7	C6     5.4526     1.6557     0.0000	C.3	1	noname	0.0234
8	C7     5.4526     0.1157     0.0000	C.2	1	noname	0.0807
9	C8     6.7863    -0.6543     0.0000	C.2	1	noname	0.0171
10	O1     6.7863    -2.1943     0.0000	O.3	1	noname	-0.2811
11	C9     8.1199     0.1157     0.0000	C.3	1	noname	0.1747
12	O2     8.1199    -1.4243     0.0000	O.3	1	noname	-0.3748
13	C10     9.4536    -0.6543     0.0000	C.2	1	noname	0.1743
14	O3     9.4536    -2.1943     0.0000	O.2	1	noname	-0.2784
15	C11    10.7873     0.1157     0.0000	C.3	1	noname	0.1542
16	C12    12.1210    -0.6543     0.0000	C.2	1	noname	0.1842
17	N2    13.4547     0.1157     0.0000	N.3	1	noname	-0.2573
18	O4    12.1210    -2.1943     0.0000	O.2	1	noname	-0.2631
19	C13    10.7873     1.6557     0.0000	C.2	1	noname	0.1592
20	O5    12.1210     2.4257     0.0000	O.2	1	noname	-0.2861
21	C14     4.1189    -0.6543     0.0000	C.2	1	noname	0.0944
22	O6     4.1189    -2.1943     0.0000	O.2	1	noname	-0.2919
23	C15     2.7852     0.1157     0.0000	C.2	1	noname	0.0210
24	C16     1.4516    -0.6543     0.0000	C.2	1	noname	0.0388
25	O7     1.4516    -2.1943     0.0000	O.3	1	noname	-0.2782
26	C17     0.1179     0.1157     0.0000	C.2	1	noname	-0.0195
27	C18     0.1179     1.6557     0.0000	C.2	1	noname	-0.0318
28	C19     1.4516     2.4257     0.0000	C.2	1	noname	-0.0474
29	C20     2.7852     1.6557     0.0000	C.2	1	noname	0.0072
30	C21     4.1189     2.4257     0.0000	C.3	1	noname	0.0948
31	C22     3.3959     3.7855     0.0000	C.3	1	noname	-0.0312
32	O8     4.8419     3.7855     0.0000	O.3	1	noname	-0.3847
33	H1    11.5573     3.4020     0.0000	H	1	noname	0.0394
34	H2    12.1210     5.5057     0.0000	H	1	noname	0.0394
35	H3    10.0173     6.0694     0.0000	H	1	noname	0.0394
36	H4     8.8899     6.0694     0.0000	H	1	noname	0.0394
37	H5     6.7863     5.5057     0.0000	H	1	noname	0.0394
38	H6     7.3499     3.4020     0.0000	H	1	noname	0.0394
39	H7     8.1199     3.1957     0.0000	H	1	noname	0.0553
40	H8     6.7863     0.8857     0.0000	H	1	noname	0.0362
41	H9     6.2596     3.8729     0.0000	H	1	noname	0.0279
42	H10     5.3391     2.9524     0.0000	H	1	noname	0.0279
43	H11     4.1189     0.8857     0.0000	H	1	noname	0.0387
44	H12     8.1199    -2.9643     0.0000	H	1	noname	0.2120
45	H13    14.7883    -0.6543     0.0000	H	1	noname	0.1271
46	H14    13.4547     1.6557     0.0000	H	1	noname	0.1271
47	H15     0.1179    -2.9643     0.0000	H	1	noname	0.2182
48	H16    -1.2158    -0.6543     0.0000	H	1	noname	0.0650
49	H17    -1.2158     2.4257     0.0000	H	1	noname	0.0623
50	H18     1.4516     3.9657     0.0000	H	1	noname	0.0626
51	H19     3.8075     5.2695     0.0000	H	1	noname	0.0263
52	H20     2.0759     4.5786     0.0000	H	1	noname	0.0263
53	H21     2.2788     2.7254     0.0000	H	1	noname	0.0263
54	H22     5.5121     5.1720     0.0000	H	1	noname	0.2113
55	H23     5.4526    -2.9643     0.0000	H	1	noname	0.2179
56	H24    12.3039     0.3831     0.0000	H	1	noname	0.0563
@<TRIPOS>BOND
1	1	2	1
2	2	3	1
3	4	2	1
4	5	4	1
5	5	6	1
6	7	6	1
7	7	8	1
8	8	9	2
9	9	10	1
10	11	9	1
11	5	11	1
12	11	12	1
13	11	13	1
14	13	14	2
15	13	15	1
16	15	16	1
17	16	17	1
18	16	18	2
19	15	19	1
20	4	19	1
21	19	20	2
22	8	21	1
23	21	22	2
24	21	23	1
25	23	24	2
26	24	25	1
27	24	26	1
28	26	27	2
29	27	28	1
30	28	29	2
31	23	29	1
32	30	29	1
33	7	30	1
34	30	31	1
35	30	32	1
36	1	33	1
37	1	34	1
38	1	35	1
39	3	36	1
40	3	37	1
41	3	38	1
42	4	39	1
43	5	40	1
44	6	41	1
45	6	42	1
46	7	43	1
47	12	44	1
48	17	45	1
49	17	46	1
50	25	47	1
51	26	48	1
52	27	49	1
53	28	50	1
54	31	51	1
55	31	52	1
56	31	53	1
57	32	54	1
58	10	55	1
59	15	56	1
@<TRIPOS>SUBSTRUCTURE
1	noname	1
