@<TRIPOS>MOLECULE
tetracycline
57 60 1
SMALL
USER_CHARGES
@<TRIPOS>ATOM
1	C1    10.7844     4.7510     0.0000	C.3	1	noname	0.0000
2	N1     9.4507     3.9810     0.0000	N.3	1	noname	0.0000
3	C2     8.1171     4.7510     0.0000	C.3	1	noname	0.0000
4	C3     9.4507     2.4410     0.0000	C.3	1	noname	0.0000
5	C4     8.1171     1.6710     0.0000	C.3	1	noname	0.0000
6	C5     6.7834     2.4410     0.0000	C.3	1	noname	0.0000
7	C6     5.4497     1.6710     0.0000	C.3	1	noname	0.0000
8	C7     5.4497     0.1310     0.0000	C.2	1	noname	0.0000
9	C8     6.7834    -0.6390     0.0000	C.2	1	noname	0.0000
10	O1     6.7834    -2.1790     0.0000	O.3	1	noname	0.0000
11	C9     8.1171     0.1310     0.0000	C.3	1	noname	0.0000
12	O2     8.1171    -1.4090     0.0000	O.3	1	noname	0.0000
13	C10     9.4507    -0.6390     0.0000	C.2	1	noname	0.0000
14	O3     9.4507    -2.1790     0.0000	O.2	1	noname	0.0000
15	C11    10.7844     0.1310     0.0000	C.3	1	noname	0.0000
16	C12    12.1181    -0.6390     0.0000	C.2	1	noname	0.0000
17	N2    13.4518     0.1310     0.0000	N.3	1	noname	0.0000
18	O4    12.1181    -2.1790     0.0000	O.2	1	noname	0.0000
19	C13    10.7844     1.6710     0.0000	C.2	1	noname	0.0000
20	O5    12.1181     2.4410     0.0000	O.2	1	noname	0.0000
21	C14     4.1160    -0.6390     0.0000	C.2	1	noname	0.0000
22	O6     4.1160    -2.1790     0.0000	O.2	1	noname	0.0000
23	C15     2.7823     0.1310     0.0000	C.2	1	noname	0.0000
24	C16     1.4487    -0.6390     0.0000	C.2	1	noname	0.0000
25	O7     1.4487    -2.1790     0.0000	O.3	1	noname	0.0000
26	C17     0.1150     0.1310     0.0000	C.2	1	noname	0.0000
27	C18     0.1150     1.6710     0.0000	C.2	1	noname	0.0000
28	C19     1.4487     2.4410     0.0000	C.2	1	noname	0.0000
29	C20     2.7823     1.6710     0.0000	C.2	1	noname	0.0000
30	C21     4.1160     2.4410     0.0000	C.3	1	noname	0.0000
31	C22     3.3930     3.8008     0.0000	C.3	1	noname	0.0000
32	O8     4.8390     3.8008     0.0000	O.3	1	noname	0.0000
33	H1    11.5544     3.4174     0.0000	H	1	noname	0.0000
34	H2    12.1181     5.5210     0.0000	H	1	noname	0.0000
35	H3    10.0144     6.0847     0.0000	H	1	noname	0.0000
36	H4     9.4507     5.5210     0.0000	H	1	noname	0.0000
37	H5     7.7185     6.2386     0.0000	H	1	noname	0.0000
38	H6     6.5771     4.7510     0.0000	H	1	noname	0.0000
39	H7     7.5645     3.4175     0.0000	H	1	noname	0.0000
40	H8     8.1171     3.2110     0.0000	H	1	noname	0.0000
41	H9     6.7834     0.9010     0.0000	H	1	noname	0.0000
42	H10     6.5809     3.9677     0.0000	H	1	noname	0.0000
43	H11     5.4019     3.1215     0.0000	H	1	noname	0.0000
44	H12     4.1160     0.9010     0.0000	H	1	noname	0.0000
45	H13     6.0134    -3.5126     0.0000	H	1	noname	0.0000
46	H14     8.1171    -2.9490     0.0000	H	1	noname	0.0000
47	H15    14.7855    -0.6390     0.0000	H	1	noname	0.0000
48	H16    13.4518     1.6710     0.0000	H	1	noname	0.0000
49	H17     0.1150    -2.9490     0.0000	H	1	noname	0.0000
50	H18    -1.2187    -0.6390     0.0000	H	1	noname	0.0000
51	H19    -1.2187     2.4410     0.0000	H	1	noname	0.0000
52	H20     1.4487     3.9810     0.0000	H	1	noname	0.0000
53	H21     3.8046     5.2848     0.0000	H	1	noname	0.0000
54	H22     2.0730     4.5939     0.0000	H	1	noname	0.0000
55	H23     2.2760     2.7407     0.0000	H	1	noname	0.0000
56	H24     5.4856     5.1985     0.0000	H	1	noname	0.0000
57	H25    12.3010     0.3985     0.0000	H	1	noname	0.0000
@<TRIPOS>BOND
1	1	2	1
2	2	3	1
3	4	2	1
4	5	4	1
5	5	6	1
6	7	6	1
7	7	8	1
8	8	9	2
9	9	10	1
10	11	9	1
11	5	11	1
12	11	12	1
13	11	13	1
14	13	14	2
15	13	15	1
16	15	16	1
17	16	17	1
18	16	18	2
19	15	19	1
20	4	19	1
21	19	20	2
22	8	21	1
23	21	22	2
24	21	23	1
25	23	24	2
26	24	25	1
27	24	26	1
28	26	27	2
29	27	28	1
30	28	29	2
31	23	29	1
32	30	29	1
33	7	30	1
34	30	31	1
35	30	32	1
36	1	33	1
37	1	34	1
38	1	35	1
39	2	36	1
40	3	37	1
41	3	38	1
42	3	39	1
43	4	40	1
44	5	41	1
45	6	42	1
46	6	43	1
47	7	44	1
48	10	45	1
49	12	46	1
50	17	47	1
51	17	48	1
52	25	49	1
53	26	50	1
54	27	51	1
55	28	52	1
56	31	53	1
57	31	54	1
58	31	55	1
59	32	56	1
60	15	57	1
@<TRIPOS>SUBSTRUCTURE
1	noname	1
