@<TRIPOS>MOLECULE
tetracycline
57 60 1
SMALL
USER_CHARGES
@<TRIPOS>ATOM
1	C1    10.7968     4.7432     0.0000	C.3	1	noname	0.0000
2	N1     9.4631     3.9732     0.0000	N.3	1	noname	0.0000
3	C2     8.1294     4.7432     0.0000	C.3	1	noname	0.0000
4	C3     9.4631     2.4332     0.0000	C.3	1	noname	0.0000
5	C4     8.1294     1.6632     0.0000	C.3	1	noname	0.0000
6	C5     6.7957     2.4332     0.0000	C.3	1	noname	0.0000
7	C6     5.4620     1.6632     0.0000	C.3	1	noname	0.0000
8	C7     5.4620     0.1232     0.0000	C.2	1	noname	0.0000
9	C8     6.7957    -0.6468     0.0000	C.2	1	noname	0.0000
10	O1     6.7957    -2.1868     0.0000	O.3	1	noname	0.0000
11	C9     8.1294     0.1232     0.0000	C.3	1	noname	0.0000
12	O2     8.1294    -1.4168     0.0000	O.3	1	noname	0.0000
13	C10     9.4631    -0.6468     0.0000	C.2	1	noname	0.0000
14	O3     9.4631    -2.1868     0.0000	O.2	1	noname	0.0000
15	C11    10.7968     0.1232     0.0000	C.3	1	noname	0.0000
16	C12    12.1304    -0.6468     0.0000	C.2	1	noname	0.0000
17	N2    13.4641     0.1232     0.0000	N.3	1	noname	0.0000
18	O4    12.1304    -2.1868     0.0000	O.2	1	noname	0.0000
19	C13    10.7968     1.6632     0.0000	C.2	1	noname	0.0000
20	O5    12.1304     2.4332     0.0000	O.2	1	noname	0.0000
21	C14     4.1284    -0.6468     0.0000	C.2	1	noname	0.0000
22	O6     4.1284    -2.1868     0.0000	O.2	1	noname	0.0000
23	C15     2.7947     0.1232     0.0000	C.2	1	noname	0.0000
24	C16     1.4610    -0.6468     0.0000	C.2	1	noname	0.0000
25	O7     1.4610    -2.1868     0.0000	O.3	1	noname	0.0000
26	C17     0.1273     0.1232     0.0000	C.2	1	noname	0.0000
27	C18     0.1273     1.6632     0.0000	C.2	1	noname	0.0000
28	C19     1.4610     2.4332     0.0000	C.2	1	noname	0.0000
29	C20     2.7947     1.6632     0.0000	C.2	1	noname	0.0000
30	C21     4.1284     2.4332     0.0000	C.3	1	noname	0.0000
31	C22     3.4054     3.7929     0.0000	C.3	1	noname	0.0000
32	O8     4.8513     3.7929     0.0000	O.3	1	noname	0.0000
33	H1    11.5668     3.4095     0.0000	H	1	noname	0.0000
34	H2    12.1304     5.5132     0.0000	H	1	noname	0.0000
35	H3    10.0268     6.0769     0.0000	H	1	noname	0.0000
36	H4     9.4631     5.5132     0.0000	H	1	noname	0.0000
37	H5     7.7308     6.2307     0.0000	H	1	noname	0.0000
38	H6     6.5894     4.7432     0.0000	H	1	noname	0.0000
39	H7     7.5768     3.4097     0.0000	H	1	noname	0.0000
40	H8     8.1294     3.2032     0.0000	H	1	noname	0.0000
41	H9     6.7957     0.8932     0.0000	H	1	noname	0.0000
42	H10     6.5932     3.9598     0.0000	H	1	noname	0.0000
43	H11     5.4142     3.1136     0.0000	H	1	noname	0.0000
44	H12     4.1284     0.8932     0.0000	H	1	noname	0.0000
45	H13     8.1294    -2.9568     0.0000	H	1	noname	0.0000
46	H14    14.7978    -0.6468     0.0000	H	1	noname	0.0000
47	H15    13.4641     1.6632     0.0000	H	1	noname	0.0000
48	H16     0.1273    -2.9568     0.0000	H	1	noname	0.0000
49	H17    -1.2064    -0.6468     0.0000	H	1	noname	0.0000
50	H18    -1.2064     2.4332     0.0000	H	1	noname	0.0000
51	H19     1.4610     3.9732     0.0000	H	1	noname	0.0000
52	H20     3.8169     5.2769     0.0000	H	1	noname	0.0000
53	H21     2.0853     4.5861     0.0000	H	1	noname	0.0000
54	H22     2.2883     2.7329     0.0000	H	1	noname	0.0000
55	H23     5.4979     5.1906     0.0000	H	1	noname	0.0000
56	H24     5.4620    -2.9568     0.0000	H	1	noname	0.0000
57	H25    12.3134     0.3906     0.0000	H	1	noname	0.0000
@<TRIPOS>BOND
1	1	2	1
2	2	3	1
3	4	2	1
4	5	4	1
5	5	6	1
6	7	6	1
7	7	8	1
8	8	9	2
9	9	10	1
10	11	9	1
11	5	11	1
12	11	12	1
13	11	13	1
14	13	14	2
15	13	15	1
16	15	16	1
17	16	17	1
18	16	18	2
19	15	19	1
20	4	19	1
21	19	20	2
22	8	21	1
23	21	22	2
24	21	23	1
25	23	24	2
26	24	25	1
27	24	26	1
28	26	27	2
29	27	28	1
30	28	29	2
31	23	29	1
32	30	29	1
33	7	30	1
34	30	31	1
35	30	32	1
36	1	33	1
37	1	34	1
38	1	35	1
39	2	36	1
40	3	37	1
41	3	38	1
42	3	39	1
43	4	40	1
44	5	41	1
45	6	42	1
46	6	43	1
47	7	44	1
48	12	45	1
49	17	46	1
50	17	47	1
51	25	48	1
52	26	49	1
53	27	50	1
54	28	51	1
55	31	52	1
56	31	53	1
57	31	54	1
58	32	55	1
59	10	56	1
60	15	57	1
@<TRIPOS>SUBSTRUCTURE
1	noname	1
