@<TRIPOS>MOLECULE
tetracycline
55 58 1
SMALL
USER_CHARGES
@<TRIPOS>ATOM
1	C1    10.7895     4.7379     0.0000	C.3	1	noname	-0.0129
2	N1     9.4559     3.9679     0.0000	N.3	1	noname	-0.2993
3	C2     8.1222     4.7379     0.0000	C.3	1	noname	-0.0129
4	C3     9.4559     2.4279     0.0000	C.3	1	noname	0.0759
5	C4     8.1222     1.6579     0.0000	C.3	1	noname	0.0245
6	C5     6.7885     2.4279     0.0000	C.3	1	noname	-0.0346
7	C6     5.4548     1.6579     0.0000	C.3	1	noname	0.0234
8	C7     5.4548     0.1179     0.0000	C.2	1	noname	0.0776
9	C8     6.7885    -0.6521     0.0000	C.2	1	noname	0.0167
10	O1     6.7885    -2.1921     0.0000	O.3	1	noname	-0.2812
11	C9     8.1222     0.1179     0.0000	C.3	1	noname	0.1747
12	O2     8.1222    -1.4221     0.0000	O.3	1	noname	-0.3748
13	C10     9.4559    -0.6521     0.0000	C.2	1	noname	0.1743
14	O3     9.4559    -2.1921     0.0000	O.2	1	noname	-0.2784
15	C11    10.7895     0.1179     0.0000	C.3	1	noname	0.1542
16	C12    12.1232    -0.6521     0.0000	C.2	1	noname	0.1842
17	N2    13.4569     0.1179     0.0000	N.3	1	noname	-0.2573
18	O4    12.1232    -2.1921     0.0000	O.2	1	noname	-0.2631
19	C13    10.7895     1.6579     0.0000	C.2	1	noname	0.1592
20	O5    12.1232     2.4279     0.0000	O.2	1	noname	-0.2861
21	C14     4.1211    -0.6521     0.0000	C.2	1	noname	0.0809
22	O6     4.1211    -2.1921     0.0000	O.2	1	noname	-0.2951
23	C15     2.7875     0.1179     0.0000	C.2	1	noname	-0.0289
24	C16     1.4538    -0.6521     0.0000	C.2	1	noname	0.0004
25	O7     1.4538    -2.1921     0.0000	O.3	1	noname	-0.8402
26	C17     0.1201     0.1179     0.0000	C.2	1	noname	-0.0681
27	C18     0.1201     1.6579     0.0000	C.2	1	noname	-0.0474
28	C19     1.4538     2.4279     0.0000	C.2	1	noname	-0.0742
29	C20     2.7875     1.6579     0.0000	C.2	1	noname	-0.0093
30	C21     4.1211     2.4279     0.0000	C.3	1	noname	0.0947
31	C22     3.3982     3.7876     0.0000	C.3	1	noname	-0.0312
32	O8     4.8441     3.7876     0.0000	O.3	1	noname	-0.3847
33	H1    11.5595     3.4042     0.0000	H	1	noname	0.0394
34	H2    12.1232     5.5079     0.0000	H	1	noname	0.0394
35	H3    10.0195     6.0716     0.0000	H	1	noname	0.0394
36	H4     8.8922     6.0716     0.0000	H	1	noname	0.0394
37	H5     6.7885     5.5079     0.0000	H	1	noname	0.0394
38	H6     7.3522     3.4042     0.0000	H	1	noname	0.0394
39	H7     8.1222     3.1979     0.0000	H	1	noname	0.0553
40	H8     6.7885     0.8879     0.0000	H	1	noname	0.0362
41	H9     6.2618     3.8750     0.0000	H	1	noname	0.0279
42	H10     5.3414     2.9546     0.0000	H	1	noname	0.0279
43	H11     4.1211     0.8879     0.0000	H	1	noname	0.0387
44	H12     8.1222    -2.9621     0.0000	H	1	noname	0.2120
45	H13    14.7906    -0.6521     0.0000	H	1	noname	0.1271
46	H14    13.4569     1.6579     0.0000	H	1	noname	0.1271
47	H15    -1.2136    -0.6521     0.0000	H	1	noname	0.0614
48	H16    -1.2136     2.4279     0.0000	H	1	noname	0.0622
49	H17     1.4538     3.9679     0.0000	H	1	noname	0.0626
50	H18     3.8097     5.2716     0.0000	H	1	noname	0.0263
51	H19     2.0781     4.5808     0.0000	H	1	noname	0.0263
52	H20     2.2811     2.7276     0.0000	H	1	noname	0.0263
53	H21     5.5143     5.1742     0.0000	H	1	noname	0.2113
54	H22     5.4548    -2.9621     0.0000	H	1	noname	0.2179
55	H23    12.3061     0.3853     0.0000	H	1	noname	0.0563
@<TRIPOS>BOND
1	1	2	1
2	2	3	1
3	4	2	1
4	5	4	1
5	5	6	1
6	7	6	1
7	7	8	1
8	8	9	2
9	9	10	1
10	11	9	1
11	5	11	1
12	11	12	1
13	11	13	1
14	13	14	2
15	13	15	1
16	15	16	1
17	16	17	1
18	16	18	2
19	15	19	1
20	4	19	1
21	19	20	2
22	8	21	1
23	21	22	2
24	21	23	1
25	23	24	2
26	24	25	1
27	24	26	1
28	26	27	2
29	27	28	1
30	28	29	2
31	23	29	1
32	30	29	1
33	7	30	1
34	30	31	1
35	30	32	1
36	1	33	1
37	1	34	1
38	1	35	1
39	3	36	1
40	3	37	1
41	3	38	1
42	4	39	1
43	5	40	1
44	6	41	1
45	6	42	1
46	7	43	1
47	12	44	1
48	17	45	1
49	17	46	1
50	26	47	1
51	27	48	1
52	28	49	1
53	31	50	1
54	31	51	1
55	31	52	1
56	32	53	1
57	10	54	1
58	15	55	1
@<TRIPOS>SUBSTRUCTURE
1	noname	1
