@<TRIPOS>MOLECULE
Ciprofloxacin
42 45 1
SMALL
USER_CHARGES
@<TRIPOS>ATOM
1	O1    -2.5128    -5.6883     0.0000	O.3	1	noname	-0.2151
2	C1    -2.5128    -4.1483     0.0000	C.2	1	noname	0.1173
3	O2    -3.8465    -3.3783     0.0000	O.2	1	noname	-0.2535
4	C2    -1.1791    -3.3783     0.0000	C.2	1	noname	0.1011
5	C3    -1.1791    -1.8383     0.0000	C.2	1	noname	-0.0020
6	N1     0.1546    -1.0683     0.0000	N.3	1	noname	0.0442
7	C4     0.1546     0.4717     0.0000	C.3	1	noname	-0.0155
8	C5    -0.6154     1.8054     0.0000	C.3	1	noname	-0.0458
9	C6     0.9246     1.8054     0.0000	C.3	1	noname	-0.0458
10	C7     1.4882    -1.8383     0.0000	C.2	1	noname	-0.0053
11	C8     2.8219    -1.0683     0.0000	C.2	1	noname	-0.0340
12	C9     4.1556    -1.8383     0.0000	C.2	1	noname	0.0373
13	N2     5.4893    -1.0683     0.0000	N.3	1	noname	-0.1137
14	C10     5.4893     0.4717     0.0000	C.3	1	noname	0.0158
15	C11     6.8230     1.2417     0.0000	C.3	1	noname	0.0084
16	N3     8.1566     0.4717     0.0000	N.3	1	noname	-0.3141
17	C12     8.1566    -1.0683     0.0000	C.3	1	noname	0.0084
18	C13     6.8230    -1.8383     0.0000	C.3	1	noname	0.0158
19	C14     4.1556    -3.3783     0.0000	C.2	1	noname	0.0132
20	F1     5.4893    -4.1483     0.0000	F	1	noname	-0.1634
21	C15     2.8219    -4.1483     0.0000	C.2	1	noname	0.0320
22	C16     1.4882    -3.3783     0.0000	C.2	1	noname	-0.0300
23	C17     0.1546    -4.1483     0.0000	C.2	1	noname	0.0955
24	O3     0.1546    -5.6883     0.0000	O.2	1	noname	-0.2892
25	H1    -3.8465    -6.4583     0.0000	H	1	noname	0.2216
26	H2    -2.5128    -1.0683     0.0000	H	1	noname	0.0635
27	H3    -1.0251    -0.5182     0.0000	H	1	noname	0.0352
28	H4    -2.1496     1.6712     0.0000	H	1	noname	0.0273
29	H5    -1.2663     3.2011     0.0000	H	1	noname	0.0273
30	H6     1.5754     3.2011     0.0000	H	1	noname	0.0273
31	H7     2.4587     1.6712     0.0000	H	1	noname	0.0273
32	H8     2.8219     0.4717     0.0000	H	1	noname	0.0647
33	H9     3.9502     0.5255     0.0000	H	1	noname	0.0447
34	H10     4.6732     1.7777     0.0000	H	1	noname	0.0447
35	H11     6.1000     2.6015     0.0000	H	1	noname	0.0441
36	H12     7.5459     2.6015     0.0000	H	1	noname	0.0441
37	H13     9.4903     1.2417     0.0000	H	1	noname	0.1223
38	H14     9.6957    -1.1220     0.0000	H	1	noname	0.0441
39	H15     8.9727    -2.3743     0.0000	H	1	noname	0.0441
40	H16     7.5459    -3.1980     0.0000	H	1	noname	0.0447
41	H17     6.1000    -3.1980     0.0000	H	1	noname	0.0447
42	H18     2.8219    -5.6883     0.0000	H	1	noname	0.0661
@<TRIPOS>BOND
1	1	2	1
2	2	3	2
3	2	4	1
4	4	5	2
5	5	6	1
6	6	7	1
7	7	8	1
8	8	9	1
9	7	9	1
10	6	10	1
11	10	11	2
12	11	12	1
13	12	13	1
14	13	14	1
15	14	15	1
16	15	16	1
17	16	17	1
18	17	18	1
19	13	18	1
20	12	19	2
21	19	20	1
22	19	21	1
23	21	22	2
24	10	22	1
25	22	23	1
26	4	23	1
27	23	24	2
28	1	25	1
29	5	26	1
30	7	27	1
31	8	28	1
32	8	29	1
33	9	30	1
34	9	31	1
35	11	32	1
36	14	33	1
37	14	34	1
38	15	35	1
39	15	36	1
40	16	37	1
41	17	38	1
42	17	39	1
43	18	40	1
44	18	41	1
45	21	42	1
@<TRIPOS>SUBSTRUCTURE
1	noname	1
