@<TRIPOS>MOLECULE
Ciprofloxacin
42 45 1
SMALL
USER_CHARGES
@<TRIPOS>ATOM
1	O1    -3.0091    -5.6080     0.0000	O.3	1	noname	-0.2151
2	C1    -3.0091    -4.0680     0.0000	C.2	1	noname	0.1173
3	O2    -4.3428    -3.2980     0.0000	O.2	1	noname	-0.2535
4	C2    -1.6754    -3.2980     0.0000	C.2	1	noname	0.1011
5	C3    -1.6754    -1.7580     0.0000	C.2	1	noname	-0.0020
6	N1    -0.3417    -0.9880     0.0000	N.3	1	noname	0.0442
7	C4    -0.3417     0.5520     0.0000	C.3	1	noname	-0.0155
8	C5    -1.1117     1.8857     0.0000	C.3	1	noname	-0.0458
9	C6     0.4283     1.8857     0.0000	C.3	1	noname	-0.0458
10	C7     0.9919    -1.7580     0.0000	C.2	1	noname	-0.0053
11	C8     2.3256    -0.9880     0.0000	C.2	1	noname	-0.0340
12	C9     3.6593    -1.7580     0.0000	C.2	1	noname	0.0373
13	N2     4.9930    -0.9880     0.0000	N.3	1	noname	-0.1137
14	C10     4.9930     0.5520     0.0000	C.3	1	noname	0.0158
15	C11     6.3266     1.3220     0.0000	C.3	1	noname	0.0084
16	N3     7.6603     0.5520     0.0000	N.3	1	noname	-0.3141
17	C12     7.6603    -0.9880     0.0000	C.3	1	noname	0.0084
18	C13     6.3266    -1.7580     0.0000	C.3	1	noname	0.0158
19	C14     3.6593    -3.2980     0.0000	C.2	1	noname	0.0132
20	F1     4.9930    -4.0680     0.0000	F	1	noname	-0.1634
21	C15     2.3256    -4.0680     0.0000	C.2	1	noname	0.0320
22	C16     0.9919    -3.2980     0.0000	C.2	1	noname	-0.0300
23	C17    -0.3417    -4.0680     0.0000	C.2	1	noname	0.0955
24	O3    -0.3417    -5.6080     0.0000	O.2	1	noname	-0.2892
25	H1    -4.3428    -6.3780     0.0000	H	1	noname	0.2216
26	H2    -3.0091    -0.9880     0.0000	H	1	noname	0.0635
27	H3     1.1458     0.1534     0.0000	H	1	noname	0.0352
28	H4    -1.8029     3.2619     0.0000	H	1	noname	0.0273
29	H5    -2.6491     1.7961     0.0000	H	1	noname	0.0273
30	H6     1.9656     1.7961     0.0000	H	1	noname	0.0273
31	H7     1.1194     3.2619     0.0000	H	1	noname	0.0273
32	H8     3.2530     0.2415     0.0000	H	1	noname	0.0647
33	H9     4.4648     1.9986     0.0000	H	1	noname	0.0447
34	H10     6.3266    -0.2180     0.0000	H	1	noname	0.0447
35	H11     7.0178     2.6982     0.0000	H	1	noname	0.0441
36	H12     5.6355     2.6982     0.0000	H	1	noname	0.0441
37	H13     8.9940     1.3220     0.0000	H	1	noname	0.1223
38	H14     8.5066    -2.2746     0.0000	H	1	noname	0.0441
39	H15     9.1977    -1.0775     0.0000	H	1	noname	0.0441
40	H16     5.6355    -3.1342     0.0000	H	1	noname	0.0447
41	H17     7.0178    -3.1342     0.0000	H	1	noname	0.0447
42	H18     2.3256    -5.6080     0.0000	H	1	noname	0.0661
@<TRIPOS>BOND
1	1	2	1
2	2	3	2
3	2	4	1
4	4	5	2
5	5	6	1
6	6	7	1
7	7	8	1
8	8	9	1
9	7	9	1
10	6	10	1
11	10	11	2
12	11	12	1
13	12	13	1
14	13	14	1
15	14	15	1
16	15	16	1
17	16	17	1
18	17	18	1
19	13	18	1
20	12	19	2
21	19	20	1
22	19	21	1
23	21	22	2
24	10	22	1
25	22	23	1
26	4	23	1
27	23	24	2
28	1	25	1
29	5	26	1
30	7	27	1
31	8	28	1
32	8	29	1
33	9	30	1
34	9	31	1
35	11	32	1
36	14	33	1
37	14	34	1
38	15	35	1
39	15	36	1
40	16	37	1
41	17	38	1
42	17	39	1
43	18	40	1
44	18	41	1
45	21	42	1
@<TRIPOS>SUBSTRUCTURE
1	noname	1
